GNT-00066-03
     RDKit          3D

 39 40  0  0  0  0  0  0  0  0999 V2000
    3.2330    0.5487   -2.3025 C   0  0  0  0  0  0  0  0  0  0  0  0
    2.7328    0.3048   -1.0353 C   0  0  0  0  0  0  0  0  0  0  0  0
    0.5253    0.9978   -1.7896 C   0  0  0  0  0  0  0  0  0  0  0  0
    2.3965    1.0100   -3.3376 C   0  0  0  0  0  0  0  0  0  0  0  0
    1.0348    1.2403   -3.0719 C   0  0  0  0  0  0  0  0  0  0  0  0
    1.3672    0.5286   -0.7727 C   0  0  0  0  0  0  0  0  0  0  0  0
    2.9834    1.2652   -4.6798 C   0  0  0  0  0  0  0  0  0  0  0  0
    2.0251    1.4952   -5.7972 C   0  0  0  0  0  0  0  0  0  0  0  0
    2.5431    1.8626   -6.9891 C   0  0  0  0  0  0  0  0  0  0  0  0
    0.1419    1.7909   -4.1594 C   0  0  0  0  0  0  0  0  0  0  0  0
    0.5540    1.2732   -5.5428 C   0  0  0  0  0  0  0  0  0  0  0  0
    1.6531    5.4262  -10.4936 C   0  0  0  0  0  0  0  0  0  0  0  0
   -0.4124    0.4666    0.8280 C   0  0  0  0  0  0  0  0  0  0  0  0
    1.2964    4.0490  -11.0647 C   0  0  0  0  0  0  0  0  0  0  0  0
    2.4306    3.0161  -10.9621 C   0  0  0  0  0  0  0  0  0  0  0  0
    2.9624    2.7625   -9.5491 C   0  0  0  0  0  0  0  0  0  0  0  0
    4.2085    1.2741   -4.8484 O   0  0  0  0  0  0  0  0  0  0  0  0
    0.9590    0.2571    0.5005 O   0  0  0  0  0  0  0  0  0  0  0  0
    1.6256    2.1302   -8.4513 S   0  0  0  0  0  0  0  0  0  0  0  0
    4.2831    0.3880   -2.5267 H   0  0  0  0  0  0  0  0  0  0  0  0
    3.3651   -0.0587   -0.2307 H   0  0  0  0  0  0  0  0  0  0  0  0
   -0.5274    1.1807   -1.6015 H   0  0  0  0  0  0  0  0  0  0  0  0
    3.6221    1.9841   -7.0611 H   0  0  0  0  0  0  0  0  0  0  0  0
   -0.9033    1.5364   -3.9552 H   0  0  0  0  0  0  0  0  0  0  0  0
    0.2081    2.8872   -4.1532 H   0  0  0  0  0  0  0  0  0  0  0  0
    0.3323    0.1987   -5.6029 H   0  0  0  0  0  0  0  0  0  0  0  0
   -0.0464    1.7623   -6.3170 H   0  0  0  0  0  0  0  0  0  0  0  0
    0.8483    6.1452  -10.6782 H   0  0  0  0  0  0  0  0  0  0  0  0
    1.8115    5.3859   -9.4110 H   0  0  0  0  0  0  0  0  0  0  0  0
    2.5663    5.8228  -10.9534 H   0  0  0  0  0  0  0  0  0  0  0  0
   -0.6971    1.5176    0.6978 H   0  0  0  0  0  0  0  0  0  0  0  0
   -1.0684   -0.1693    0.2215 H   0  0  0  0  0  0  0  0  0  0  0  0
   -0.5124    0.1920    1.8788 H   0  0  0  0  0  0  0  0  0  0  0  0
    1.0276    4.1513  -12.1229 H   0  0  0  0  0  0  0  0  0  0  0  0
    0.4017    3.6670  -10.5591 H   0  0  0  0  0  0  0  0  0  0  0  0
    3.2813    3.3548  -11.5679 H   0  0  0  0  0  0  0  0  0  0  0  0
    2.0989    2.0655  -11.3962 H   0  0  0  0  0  0  0  0  0  0  0  0
    3.7574    2.0124   -9.5759 H   0  0  0  0  0  0  0  0  0  0  0  0
    3.3653    3.6768   -9.1068 H   0  0  0  0  0  0  0  0  0  0  0  0
  1  2  2  0
  1  4  1  0
  1 20  1  0
  2  6  1  0
  2 21  1  0
  3  5  1  0
  3  6  2  0
  3 22  1  0
  4  5  2  0
  4  7  1  0
  5 10  1  0
  6 18  1  0
  7  8  1  0
  7 17  2  0
  8  9  2  0
  8 11  1  0
  9 19  1  0
  9 23  1  0
 10 11  1  0
 10 24  1  0
 10 25  1  0
 11 26  1  0
 11 27  1  0
 12 14  1  0
 12 28  1  0
 12 29  1  0
 12 30  1  0
 13 18  1  0
 13 31  1  0
 13 32  1  0
 13 33  1  0
 14 15  1  0
 14 34  1  0
 14 35  1  0
 15 16  1  0
 15 36  1  0
 15 37  1  0
 16 19  1  0
 16 38  1  0
 16 39  1  0
M  END
>  <group_name>  (1) 
GNT

>  <molecule_index>  (1) 
00066

>  <conformer_index>  (1) 
03

>  <method>  (1) 
b3lyp-d3bj

>  <basis>  (1) 
dzvp

>  <program>  (1) 
psi4

>  <initial_energy>  (1) 
-734478.0297732842 kilocalorie / mole

>  <final_energy>  (1) 
-734506.9311601389 kilocalorie / mole

$$$$
