GNT-00066-00
     RDKit          3D

 39 40  0  0  0  0  0  0  0  0999 V2000
    2.6568    0.8019   -2.0517 C   0  0  0  0  0  0  0  0  0  0  0  0
    2.0535    0.2895   -0.9059 C   0  0  0  0  0  0  0  0  0  0  0  0
   -0.1211    0.7573   -1.8932 C   0  0  0  0  0  0  0  0  0  0  0  0
    1.8965    1.2853   -3.1250 C   0  0  0  0  0  0  0  0  0  0  0  0
    0.4858    1.2665   -3.0375 C   0  0  0  0  0  0  0  0  0  0  0  0
    0.6503    0.2661   -0.8277 C   0  0  0  0  0  0  0  0  0  0  0  0
    2.5969    1.8226   -4.3222 C   0  0  0  0  0  0  0  0  0  0  0  0
    1.7616    2.0659   -5.5313 C   0  0  0  0  0  0  0  0  0  0  0  0
    2.3570    2.6751   -6.5797 C   0  0  0  0  0  0  0  0  0  0  0  0
   -0.3381    1.8381   -4.1672 C   0  0  0  0  0  0  0  0  0  0  0  0
    0.3277    1.5932   -5.5271 C   0  0  0  0  0  0  0  0  0  0  0  0
    1.9356    3.8906  -12.7138 C   0  0  0  0  0  0  0  0  0  0  0  0
    0.6767   -0.7234    1.3524 C   0  0  0  0  0  0  0  0  0  0  0  0
    2.3007    3.3606  -11.3233 C   0  0  0  0  0  0  0  0  0  0  0  0
    2.4916    4.4868  -10.2992 C   0  0  0  0  0  0  0  0  0  0  0  0
    2.9265    4.0154   -8.9102 C   0  0  0  0  0  0  0  0  0  0  0  0
    3.8141    2.0419   -4.3047 O   0  0  0  0  0  0  0  0  0  0  0  0
   -0.0538   -0.2139    0.2384 O   0  0  0  0  0  0  0  0  0  0  0  0
    1.6003    3.0122   -8.1169 S   0  0  0  0  0  0  0  0  0  0  0  0
    3.7388    0.8354   -2.1368 H   0  0  0  0  0  0  0  0  0  0  0  0
    2.6690   -0.0846   -0.0958 H   0  0  0  0  0  0  0  0  0  0  0  0
   -1.2036    0.7307   -1.8000 H   0  0  0  0  0  0  0  0  0  0  0  0
    3.4009    2.9645   -6.4765 H   0  0  0  0  0  0  0  0  0  0  0  0
   -1.3455    1.4103   -4.1536 H   0  0  0  0  0  0  0  0  0  0  0  0
   -0.4498    2.9198   -4.0140 H   0  0  0  0  0  0  0  0  0  0  0  0
   -0.2425    2.0952   -6.3156 H   0  0  0  0  0  0  0  0  0  0  0  0
    0.2978    0.5180   -5.7517 H   0  0  0  0  0  0  0  0  0  0  0  0
    0.9997    4.4604  -12.6859 H   0  0  0  0  0  0  0  0  0  0  0  0
    1.8058    3.0720  -13.4293 H   0  0  0  0  0  0  0  0  0  0  0  0
    2.7164    4.5542  -13.1034 H   0  0  0  0  0  0  0  0  0  0  0  0
   -0.0727   -1.0468    2.0757 H   0  0  0  0  0  0  0  0  0  0  0  0
    1.3074    0.0519    1.8035 H   0  0  0  0  0  0  0  0  0  0  0  0
    1.2976   -1.5799    1.0638 H   0  0  0  0  0  0  0  0  0  0  0  0
    3.2244    2.7703  -11.3823 H   0  0  0  0  0  0  0  0  0  0  0  0
    1.5211    2.6726  -10.9770 H   0  0  0  0  0  0  0  0  0  0  0  0
    1.5684    5.0739  -10.2139 H   0  0  0  0  0  0  0  0  0  0  0  0
    3.2621    5.1781  -10.6650 H   0  0  0  0  0  0  0  0  0  0  0  0
    3.8297    3.4009   -8.9750 H   0  0  0  0  0  0  0  0  0  0  0  0
    3.1309    4.8714   -8.2616 H   0  0  0  0  0  0  0  0  0  0  0  0
  1  2  2  0
  1  4  1  0
  1 20  1  0
  2  6  1  0
  2 21  1  0
  3  5  1  0
  3  6  2  0
  3 22  1  0
  4  5  2  0
  4  7  1  0
  5 10  1  0
  6 18  1  0
  7  8  1  0
  7 17  2  0
  8  9  2  0
  8 11  1  0
  9 19  1  0
  9 23  1  0
 10 11  1  0
 10 24  1  0
 10 25  1  0
 11 26  1  0
 11 27  1  0
 12 14  1  0
 12 28  1  0
 12 29  1  0
 12 30  1  0
 13 18  1  0
 13 31  1  0
 13 32  1  0
 13 33  1  0
 14 15  1  0
 14 34  1  0
 14 35  1  0
 15 16  1  0
 15 36  1  0
 15 37  1  0
 16 19  1  0
 16 38  1  0
 16 39  1  0
M  END
>  <group_name>  (1) 
GNT

>  <molecule_index>  (1) 
00066

>  <conformer_index>  (1) 
00

>  <method>  (1) 
b3lyp-d3bj

>  <basis>  (1) 
dzvp

>  <program>  (1) 
psi4

>  <initial_energy>  (1) 
-734502.5249019092 kilocalorie / mole

>  <final_energy>  (1) 
-734506.9625052236 kilocalorie / mole

$$$$
