GNT-00066-01
     RDKit          3D

 39 40  0  0  0  0  0  0  0  0999 V2000
    2.5360    0.5114   -2.7824 C   0  0  0  0  0  0  0  0  0  0  0  0
    2.0405   -0.0969   -1.6319 C   0  0  0  0  0  0  0  0  0  0  0  0
   -0.0331    1.1441   -1.9198 C   0  0  0  0  0  0  0  0  0  0  0  0
    1.7669    1.4245   -3.5160 C   0  0  0  0  0  0  0  0  0  0  0  0
    0.4650    1.7480   -3.0705 C   0  0  0  0  0  0  0  0  0  0  0  0
    0.7421    0.2221   -1.1983 C   0  0  0  0  0  0  0  0  0  0  0  0
    2.3488    2.0430   -4.7369 C   0  0  0  0  0  0  0  0  0  0  0  0
    1.4063    2.7759   -5.6276 C   0  0  0  0  0  0  0  0  0  0  0  0
    1.9403    3.4390   -6.6759 C   0  0  0  0  0  0  0  0  0  0  0  0
   -0.3467    2.7738   -3.8258 C   0  0  0  0  0  0  0  0  0  0  0  0
   -0.0732    2.7029   -5.3333 C   0  0  0  0  0  0  0  0  0  0  0  0
    2.7217    2.1054  -11.7073 C   0  0  0  0  0  0  0  0  0  0  0  0
    0.8879   -1.2514    0.6830 C   0  0  0  0  0  0  0  0  0  0  0  0
    2.0704    3.2061  -10.8634 C   0  0  0  0  0  0  0  0  0  0  0  0
    3.0280    3.7907   -9.8200 C   0  0  0  0  0  0  0  0  0  0  0  0
    2.4168    4.8968   -8.9551 C   0  0  0  0  0  0  0  0  0  0  0  0
    3.5537    1.9345   -4.9955 O   0  0  0  0  0  0  0  0  0  0  0  0
    0.1471   -0.3105   -0.0917 O   0  0  0  0  0  0  0  0  0  0  0  0
    1.0399    4.3439   -7.8688 S   0  0  0  0  0  0  0  0  0  0  0  0
    3.5370    0.2857   -3.1375 H   0  0  0  0  0  0  0  0  0  0  0  0
    2.6566   -0.8056   -1.0905 H   0  0  0  0  0  0  0  0  0  0  0  0
   -1.0308    1.3744   -1.5554 H   0  0  0  0  0  0  0  0  0  0  0  0
    3.0211    3.4124   -6.7978 H   0  0  0  0  0  0  0  0  0  0  0  0
   -0.0827    3.7755   -3.4615 H   0  0  0  0  0  0  0  0  0  0  0  0
   -1.4134    2.6338   -3.6246 H   0  0  0  0  0  0  0  0  0  0  0  0
   -0.4757    1.7586   -5.7254 H   0  0  0  0  0  0  0  0  0  0  0  0
   -0.6078    3.5094   -5.8452 H   0  0  0  0  0  0  0  0  0  0  0  0
    3.0539    1.2719  -11.0780 H   0  0  0  0  0  0  0  0  0  0  0  0
    2.0205    1.7054  -12.4473 H   0  0  0  0  0  0  0  0  0  0  0  0
    3.5979    2.4829  -12.2473 H   0  0  0  0  0  0  0  0  0  0  0  0
    0.2317   -1.5412    1.5046 H   0  0  0  0  0  0  0  0  0  0  0  0
    1.1456   -2.1386    0.0925 H   0  0  0  0  0  0  0  0  0  0  0  0
    1.8021   -0.8018    1.0883 H   0  0  0  0  0  0  0  0  0  0  0  0
    1.7161    4.0132  -11.5187 H   0  0  0  0  0  0  0  0  0  0  0  0
    1.1842    2.8071  -10.3574 H   0  0  0  0  0  0  0  0  0  0  0  0
    3.9053    4.2152  -10.3276 H   0  0  0  0  0  0  0  0  0  0  0  0
    3.4066    2.9890   -9.1745 H   0  0  0  0  0  0  0  0  0  0  0  0
    3.1717    5.3689   -8.3200 H   0  0  0  0  0  0  0  0  0  0  0  0
    1.9767    5.6806   -9.5799 H   0  0  0  0  0  0  0  0  0  0  0  0
  1  2  2  0
  1  4  1  0
  1 20  1  0
  2  6  1  0
  2 21  1  0
  3  5  1  0
  3  6  2  0
  3 22  1  0
  4  5  2  0
  4  7  1  0
  5 10  1  0
  6 18  1  0
  7  8  1  0
  7 17  2  0
  8  9  2  0
  8 11  1  0
  9 19  1  0
  9 23  1  0
 10 11  1  0
 10 24  1  0
 10 25  1  0
 11 26  1  0
 11 27  1  0
 12 14  1  0
 12 28  1  0
 12 29  1  0
 12 30  1  0
 13 18  1  0
 13 31  1  0
 13 32  1  0
 13 33  1  0
 14 15  1  0
 14 34  1  0
 14 35  1  0
 15 16  1  0
 15 36  1  0
 15 37  1  0
 16 19  1  0
 16 38  1  0
 16 39  1  0
M  END
>  <group_name>  (1) 
GNT

>  <molecule_index>  (1) 
00066

>  <conformer_index>  (1) 
01

>  <method>  (1) 
b3lyp-d3bj

>  <basis>  (1) 
dzvp

>  <program>  (1) 
psi4

>  <initial_energy>  (1) 
-734476.8274924404 kilocalorie / mole

>  <final_energy>  (1) 
-734507.9848288192 kilocalorie / mole

$$$$
