GNT-00066-05
     RDKit          3D

 39 40  0  0  0  0  0  0  0  0999 V2000
    2.4310    1.4762   -1.7861 C   0  0  0  0  0  0  0  0  0  0  0  0
    1.8629    0.7841   -0.7195 C   0  0  0  0  0  0  0  0  0  0  0  0
    0.0650    0.0700   -2.1959 C   0  0  0  0  0  0  0  0  0  0  0  0
    1.8426    1.4713   -3.0577 C   0  0  0  0  0  0  0  0  0  0  0  0
    0.6374    0.7609   -3.2599 C   0  0  0  0  0  0  0  0  0  0  0  0
    0.6687    0.0728   -0.9282 C   0  0  0  0  0  0  0  0  0  0  0  0
    2.4953    2.2291   -4.1587 C   0  0  0  0  0  0  0  0  0  0  0  0
    1.9946    1.9684   -5.5372 C   0  0  0  0  0  0  0  0  0  0  0  0
    2.4926    2.7382   -6.5292 C   0  0  0  0  0  0  0  0  0  0  0  0
   -0.0308    0.7988   -4.6141 C   0  0  0  0  0  0  0  0  0  0  0  0
    1.0015    0.8508   -5.7475 C   0  0  0  0  0  0  0  0  0  0  0  0
    1.5130    4.3872  -12.5159 C   0  0  0  0  0  0  0  0  0  0  0  0
    0.5867   -0.6755    1.3446 C   0  0  0  0  0  0  0  0  0  0  0  0
    1.5214    4.2896  -10.9867 C   0  0  0  0  0  0  0  0  0  0  0  0
    2.9309    4.0703  -10.4220 C   0  0  0  0  0  0  0  0  0  0  0  0
    3.0059    4.0402   -8.8943 C   0  0  0  0  0  0  0  0  0  0  0  0
    3.4146    3.0240   -3.9288 O   0  0  0  0  0  0  0  0  0  0  0  0
    0.0214   -0.6448    0.0356 O   0  0  0  0  0  0  0  0  0  0  0  0
    2.1057    2.5788   -8.2245 S   0  0  0  0  0  0  0  0  0  0  0  0
    3.3513    2.0366   -1.6517 H   0  0  0  0  0  0  0  0  0  0  0  0
    2.3466    0.8001    0.2504 H   0  0  0  0  0  0  0  0  0  0  0  0
   -0.8610   -0.4846   -2.3237 H   0  0  0  0  0  0  0  0  0  0  0  0
    3.2121    3.5103   -6.2636 H   0  0  0  0  0  0  0  0  0  0  0  0
   -0.6870   -0.0687   -4.7357 H   0  0  0  0  0  0  0  0  0  0  0  0
   -0.6687    1.6908   -4.6712 H   0  0  0  0  0  0  0  0  0  0  0  0
    1.5356   -0.1085   -5.7894 H   0  0  0  0  0  0  0  0  0  0  0  0
    0.4917    0.9690   -6.7094 H   0  0  0  0  0  0  0  0  0  0  0  0
    0.4991    4.5438  -12.8984 H   0  0  0  0  0  0  0  0  0  0  0  0
    2.1339    5.2210  -12.8637 H   0  0  0  0  0  0  0  0  0  0  0  0
    1.9035    3.4702  -12.9721 H   0  0  0  0  0  0  0  0  0  0  0  0
    0.6390    0.3296    1.7797 H   0  0  0  0  0  0  0  0  0  0  0  0
    1.5871   -1.1244    1.3361 H   0  0  0  0  0  0  0  0  0  0  0  0
   -0.0830   -1.2947    1.9425 H   0  0  0  0  0  0  0  0  0  0  0  0
    1.1015    5.2073  -10.5546 H   0  0  0  0  0  0  0  0  0  0  0  0
    0.8631    3.4733  -10.6682 H   0  0  0  0  0  0  0  0  0  0  0  0
    3.3547    3.1425  -10.8266 H   0  0  0  0  0  0  0  0  0  0  0  0
    3.5851    4.8825  -10.7648 H   0  0  0  0  0  0  0  0  0  0  0  0
    2.5638    4.9447   -8.4657 H   0  0  0  0  0  0  0  0  0  0  0  0
    4.0459    3.9687   -8.5646 H   0  0  0  0  0  0  0  0  0  0  0  0
  1  2  2  0
  1  4  1  0
  1 20  1  0
  2  6  1  0
  2 21  1  0
  3  5  1  0
  3  6  2  0
  3 22  1  0
  4  5  2  0
  4  7  1  0
  5 10  1  0
  6 18  1  0
  7  8  1  0
  7 17  2  0
  8  9  2  0
  8 11  1  0
  9 19  1  0
  9 23  1  0
 10 11  1  0
 10 24  1  0
 10 25  1  0
 11 26  1  0
 11 27  1  0
 12 14  1  0
 12 28  1  0
 12 29  1  0
 12 30  1  0
 13 18  1  0
 13 31  1  0
 13 32  1  0
 13 33  1  0
 14 15  1  0
 14 34  1  0
 14 35  1  0
 15 16  1  0
 15 36  1  0
 15 37  1  0
 16 19  1  0
 16 38  1  0
 16 39  1  0
M  END
>  <group_name>  (1) 
GNT

>  <molecule_index>  (1) 
00066

>  <conformer_index>  (1) 
05

>  <method>  (1) 
b3lyp-d3bj

>  <basis>  (1) 
dzvp

>  <program>  (1) 
psi4

>  <initial_energy>  (1) 
-734473.8520096391 kilocalorie / mole

>  <final_energy>  (1) 
-734506.968556036 kilocalorie / mole

$$$$
