GNT-00066-04
     RDKit          3D

 39 40  0  0  0  0  0  0  0  0999 V2000
    3.0964    1.6340   -2.4652 C   0  0  0  0  0  0  0  0  0  0  0  0
    2.4446    1.4201   -1.2632 C   0  0  0  0  0  0  0  0  0  0  0  0
    0.4014    0.9034   -2.4806 C   0  0  0  0  0  0  0  0  0  0  0  0
    2.4246    1.4798   -3.6937 C   0  0  0  0  0  0  0  0  0  0  0  0
    1.0657    1.1168   -3.6954 C   0  0  0  0  0  0  0  0  0  0  0  0
    1.0854    1.0503   -1.2666 C   0  0  0  0  0  0  0  0  0  0  0  0
    3.1658    1.7313   -4.9573 C   0  0  0  0  0  0  0  0  0  0  0  0
    2.4937    1.3172   -6.2225 C   0  0  0  0  0  0  0  0  0  0  0  0
    3.0669    1.7053   -7.3816 C   0  0  0  0  0  0  0  0  0  0  0  0
    0.3209    1.0030   -5.0052 C   0  0  0  0  0  0  0  0  0  0  0  0
    1.2321    0.4956   -6.1296 C   0  0  0  0  0  0  0  0  0  0  0  0
    0.5623    4.2384   -8.5763 C   0  0  0  0  0  0  0  0  0  0  0  0
   -0.8496    0.4798    0.0232 C   0  0  0  0  0  0  0  0  0  0  0  0
    1.4166    4.3696   -9.8456 C   0  0  0  0  0  0  0  0  0  0  0  0
    2.9123    4.0452   -9.6496 C   0  0  0  0  0  0  0  0  0  0  0  0
    3.3321    2.6039   -9.9604 C   0  0  0  0  0  0  0  0  0  0  0  0
    4.2838    2.2590   -4.9481 O   0  0  0  0  0  0  0  0  0  0  0  0
    0.5244    0.8549   -0.0386 O   0  0  0  0  0  0  0  0  0  0  0  0
    2.4952    1.2933   -8.9810 S   0  0  0  0  0  0  0  0  0  0  0  0
    4.1423    1.9245   -2.4869 H   0  0  0  0  0  0  0  0  0  0  0  0
    2.9529    1.5270   -0.3096 H   0  0  0  0  0  0  0  0  0  0  0  0
   -0.6467    0.6240   -2.4994 H   0  0  0  0  0  0  0  0  0  0  0  0
    3.9760    2.3012   -7.3268 H   0  0  0  0  0  0  0  0  0  0  0  0
   -0.0691    1.9922   -5.2808 H   0  0  0  0  0  0  0  0  0  0  0  0
   -0.5449    0.3426   -4.8916 H   0  0  0  0  0  0  0  0  0  0  0  0
    0.6964    0.5137   -7.0844 H   0  0  0  0  0  0  0  0  0  0  0  0
    1.4923   -0.5534   -5.9331 H   0  0  0  0  0  0  0  0  0  0  0  0
    0.9428    4.8925   -7.7836 H   0  0  0  0  0  0  0  0  0  0  0  0
   -0.4760    4.5257   -8.7763 H   0  0  0  0  0  0  0  0  0  0  0  0
    0.5624    3.2157   -8.1921 H   0  0  0  0  0  0  0  0  0  0  0  0
   -1.0831    0.3802    1.0839 H   0  0  0  0  0  0  0  0  0  0  0  0
   -1.0236   -0.4792   -0.4795 H   0  0  0  0  0  0  0  0  0  0  0  0
   -1.4930    1.2490   -0.4206 H   0  0  0  0  0  0  0  0  0  0  0  0
    1.3298    5.3980  -10.2147 H   0  0  0  0  0  0  0  0  0  0  0  0
    1.0046    3.7294  -10.6363 H   0  0  0  0  0  0  0  0  0  0  0  0
    3.5138    4.6815  -10.3119 H   0  0  0  0  0  0  0  0  0  0  0  0
    3.2163    4.3028   -8.6285 H   0  0  0  0  0  0  0  0  0  0  0  0
    4.4121    2.4808   -9.8322 H   0  0  0  0  0  0  0  0  0  0  0  0
    3.0946    2.3509  -10.9986 H   0  0  0  0  0  0  0  0  0  0  0  0
  1  2  2  0
  1  4  1  0
  1 20  1  0
  2  6  1  0
  2 21  1  0
  3  5  1  0
  3  6  2  0
  3 22  1  0
  4  5  2  0
  4  7  1  0
  5 10  1  0
  6 18  1  0
  7  8  1  0
  7 17  2  0
  8  9  2  0
  8 11  1  0
  9 19  1  0
  9 23  1  0
 10 11  1  0
 10 24  1  0
 10 25  1  0
 11 26  1  0
 11 27  1  0
 12 14  1  0
 12 28  1  0
 12 29  1  0
 12 30  1  0
 13 18  1  0
 13 31  1  0
 13 32  1  0
 13 33  1  0
 14 15  1  0
 14 34  1  0
 14 35  1  0
 15 16  1  0
 15 36  1  0
 15 37  1  0
 16 19  1  0
 16 38  1  0
 16 39  1  0
M  END
>  <group_name>  (1) 
GNT

>  <molecule_index>  (1) 
00066

>  <conformer_index>  (1) 
04

>  <method>  (1) 
b3lyp-d3bj

>  <basis>  (1) 
dzvp

>  <program>  (1) 
psi4

>  <initial_energy>  (1) 
-734471.3623166422 kilocalorie / mole

>  <final_energy>  (1) 
-734506.4151874332 kilocalorie / mole

$$$$
